18
	Energy:      -3.5599846
C         -2.14157        2.69376        0.20809
C         -3.26375        1.73476       -0.18015
C         -0.78411        2.19951       -0.28426
H         -2.11591        2.80194        1.29948
H         -2.34523        3.68730       -0.20675
C         -2.97762        0.31138        0.29109
H         -3.38599        1.73979       -1.27033
H         -4.21040        2.08190        0.24894
C         -1.61761       -0.18203       -0.19555
H         -3.76420       -0.36123       -0.06905
H         -3.00591        0.27826        1.38724
C         -0.49718        0.77866        0.19345
H         -1.63953       -0.29302       -1.28673
H         -1.41424       -1.17437        0.22237
H          0.45119        0.43091       -0.23123
H         -0.37868        0.77792        1.28408
H          0.00436        2.87384        0.06822
H         -0.76199        2.22687       -1.38076
